
  Mrv1909 04022122312D          

155160  0  0  1  0            999 V2000
    0.6937   -1.6851    0.0000 C   0  0  0  0  0  0  0  0  0  0  0  0
    1.4075   -2.0816    0.0000 C   0  0  2  0  0  0  0  0  0  0  0  0
    0.6937   -0.8525    0.0000 O   0  0  0  0  0  0  0  0  0  0  0  0
    2.1211   -1.6851    0.0000 C   0  0  0  0  0  0  0  0  0  0  0  0
    1.4075   -2.9142    0.0000 N   0  0  0  0  0  0  0  0  0  0  0  0
    2.1211   -0.8525    0.0000 C   0  0  0  0  0  0  0  0  0  0  0  0
    2.8349   -0.4558    0.0000 C   0  0  0  0  0  0  0  0  0  0  0  0
    1.4075   -0.4558    0.0000 C   0  0  0  0  0  0  0  0  0  0  0  0
   -0.0198   -2.0816    0.0000 O   0  0  0  0  0  0  0  0  0  0  0  0
    0.6937   -3.3305    0.0000 C   0  0  0  0  0  0  0  0  0  0  0  0
   -0.0198   -2.9142    0.0000 O   0  0  0  0  0  0  0  0  0  0  0  0
    0.6937   -4.1432    0.0000 C   0  0  2  0  0  0  0  0  0  0  0  0
   -0.0198   -4.5596    0.0000 C   0  0  0  0  0  0  0  0  0  0  0  0
    1.4075   -4.5596    0.0000 N   0  0  0  0  0  0  0  0  0  0  0  0
   -0.7334   -4.1432    0.0000 C   0  0  0  0  0  0  0  0  0  0  0  0
   -1.4472   -4.5596    0.0000 C   0  0  0  0  0  0  0  0  0  0  0  0
   -0.7334   -3.3305    0.0000 C   0  0  0  0  0  0  0  0  0  0  0  0
   -1.4472   -2.9142    0.0000 C   0  0  0  0  0  0  0  0  0  0  0  0
   -2.1410   -3.3305    0.0000 C   0  0  0  0  0  0  0  0  0  0  0  0
   -2.1410   -4.1432    0.0000 C   0  0  0  0  0  0  0  0  0  0  0  0
   -2.8547   -2.9142    0.0000 O   0  0  0  0  0  0  0  0  0  0  0  0
    3.5485   -6.6015    0.0000 C   0  0  0  0  0  0  0  0  0  0  0  0
    2.1211   -4.1432    0.0000 C   0  0  0  0  0  0  0  0  0  0  0  0
    2.8349   -7.0178    0.0000 O   0  0  0  0  0  0  0  0  0  0  0  0
    3.5485   -5.7886    0.0000 C   0  0  0  0  0  0  0  0  0  0  0  0
    2.1211   -3.3305    0.0000 O   0  0  0  0  0  0  0  0  0  0  0  0
    2.8349   -5.3724    0.0000 C   0  0  0  0  0  0  0  0  0  0  0  0
    2.8349   -4.5596    0.0000 C   0  0  2  0  0  0  0  0  0  0  0  0
    4.2424   -7.0178    0.0000 O   0  0  0  0  0  0  0  0  0  0  0  0
    3.5485   -4.1432    0.0000 N   0  0  0  0  0  0  0  0  0  0  0  0
    7.0970   -4.5596    0.0000 C   0  0  0  0  0  0  0  0  0  0  0  0
    4.2424   -4.5596    0.0000 C   0  0  0  0  0  0  0  0  0  0  0  0
    7.0970   -5.3724    0.0000 O   0  0  0  0  0  0  0  0  0  0  0  0
    6.3834   -4.1432    0.0000 C   0  0  0  0  0  0  0  0  0  0  0  0
    4.2424   -5.3724    0.0000 O   0  0  0  0  0  0  0  0  0  0  0  0
    5.6697   -4.5596    0.0000 C   0  0  0  0  0  0  0  0  0  0  0  0
    4.9560   -4.1432    0.0000 C   0  0  2  0  0  0  0  0  0  0  0  0
    7.8107   -4.1432    0.0000 O   0  0  0  0  0  0  0  0  0  0  0  0
    4.9560   -3.3305    0.0000 N   0  0  0  0  0  0  0  0  0  0  0  0
    4.2424   -2.9142    0.0000 C   0  0  0  0  0  0  0  0  0  0  0  0
    3.5485   -3.3305    0.0000 O   0  0  0  0  0  0  0  0  0  0  0  0
    4.2424   -2.0816    0.0000 C   0  0  1  0  0  0  0  0  0  0  0  0
    4.9164   -1.6058    0.0000 N   0  0  0  0  0  0  0  0  0  0  0  0
    4.6587   -0.8326    0.0000 C   0  0  0  0  0  0  0  0  0  0  0  0
    3.8459   -0.8326    0.0000 C   0  0  0  0  0  0  0  0  0  0  0  0
    3.5882   -1.6058    0.0000 C   0  0  0  0  0  0  0  0  0  0  0  0
    5.6500   -2.0022    0.0000 C   0  0  0  0  0  0  0  0  0  0  0  0
    6.3635   -1.6058    0.0000 C   0  0  1  0  0  0  0  0  0  0  0  0
    5.6500   -2.8349    0.0000 O   0  0  0  0  0  0  0  0  0  0  0  0
    6.3635   -0.7732    0.0000 N   0  0  0  0  0  0  0  0  0  0  0  0
    7.0574   -2.0022    0.0000 C   0  0  2  0  0  0  0  0  0  0  0  0
    7.7710   -1.6058    0.0000 C   0  0  0  0  0  0  0  0  0  0  0  0
    7.0574   -2.8349    0.0000 C   0  0  0  0  0  0  0  0  0  0  0  0
    8.4849   -2.0022    0.0000 C   0  0  0  0  0  0  0  0  0  0  0  0
    3.5089    0.8723    0.0000 C   0  0  0  0  0  0  0  0  0  0  0  0
    5.6500   -0.3568    0.0000 C   0  0  0  0  0  0  0  0  0  0  0  0
    3.5089    1.6851    0.0000 O   0  0  0  0  0  0  0  0  0  0  0  0
    4.2225    0.4559    0.0000 C   0  0  0  0  0  0  0  0  0  0  0  0
    4.9362   -0.7732    0.0000 O   0  0  0  0  0  0  0  0  0  0  0  0
    4.9362    0.8723    0.0000 C   0  0  0  0  0  0  0  0  0  0  0  0
    5.6500    0.4559    0.0000 C   0  0  2  0  0  0  0  0  0  0  0  0
    2.7951    0.4559    0.0000 O   0  0  0  0  0  0  0  0  0  0  0  0
    6.3635    0.8723    0.0000 N   0  0  0  0  0  0  0  0  0  0  0  0
    9.1985    1.6851    0.0000 C   0  0  0  0  0  0  0  0  0  0  0  0
    6.3635    1.6851    0.0000 C   0  0  0  0  0  0  0  0  0  0  0  0
    9.1985    0.8723    0.0000 O   0  0  0  0  0  0  0  0  0  0  0  0
    8.4849    2.1014    0.0000 C   0  0  0  0  0  0  0  0  0  0  0  0
    5.6500    2.1014    0.0000 O   0  0  0  0  0  0  0  0  0  0  0  0
    7.7710    1.6851    0.0000 C   0  0  0  0  0  0  0  0  0  0  0  0
    7.0574    2.1014    0.0000 C   0  0  2  0  0  0  0  0  0  0  0  0
    9.9121    2.1014    0.0000 O   0  0  0  0  0  0  0  0  0  0  0  0
    7.0574    2.9141    0.0000 N   0  0  0  0  0  0  0  0  0  0  0  0
    7.7710    3.3304    0.0000 C   0  0  0  0  0  0  0  0  0  0  0  0
    7.7710    4.1432    0.0000 C   0  0  2  0  0  0  0  0  0  0  0  0
    8.4849    2.9141    0.0000 O   0  0  0  0  0  0  0  0  0  0  0  0
    8.4849    4.5595    0.0000 C   0  0  0  0  0  0  0  0  0  0  0  0
    7.0574    4.5595    0.0000 N   0  0  0  0  0  0  0  0  0  0  0  0
    8.4849    5.3923    0.0000 C   0  0  0  0  0  0  0  0  0  0  0  0
    9.1985    5.7887    0.0000 C   0  0  0  0  0  0  0  0  0  0  0  0
    7.7710    5.7887    0.0000 C   0  0  0  0  0  0  0  0  0  0  0  0
    7.7710    6.6213    0.0000 C   0  0  0  0  0  0  0  0  0  0  0  0
    9.1985    6.6213    0.0000 C   0  0  0  0  0  0  0  0  0  0  0  0
    8.4849    7.0178    0.0000 C   0  0  0  0  0  0  0  0  0  0  0  0
    6.3635    6.6213    0.0000 O   0  0  0  0  0  0  0  0  0  0  0  0
    4.9362    4.1432    0.0000 N   0  0  0  0  0  0  0  0  0  0  0  0
    7.0574    5.3923    0.0000 O   0  0  0  0  0  0  0  0  0  0  0  0
    6.3635    3.3304    0.0000 O   0  0  0  0  0  0  0  0  0  0  0  0
    5.6500    4.5595    0.0000 C   0  0  2  0  0  0  0  0  0  0  0  0
    6.3635    5.7887    0.0000 C   0  0  0  0  0  0  0  0  0  0  0  0
    6.3635    4.1432    0.0000 C   0  0  0  0  0  0  0  0  0  0  0  0
    5.6500    5.3923    0.0000 C   0  0  0  0  0  0  0  0  0  0  0  0
    4.2225    4.5595    0.0000 C   0  0  0  0  0  0  0  0  0  0  0  0
    4.2225    5.3923    0.0000 O   0  0  0  0  0  0  0  0  0  0  0  0
    2.7951    4.5595    0.0000 N   0  0  0  0  0  0  0  0  0  0  0  0
    3.5089    4.1432    0.0000 C   0  0  0  0  0  0  0  0  0  0  0  0
    0.6739    4.1432    0.0000 C   0  0  0  0  0  0  0  0  0  0  0  0
    2.0815    4.1432    0.0000 C   0  0  0  0  0  0  0  0  0  0  0  0
    0.6739    3.3304    0.0000 C   0  0  0  0  0  0  0  0  0  0  0  0
    1.3678    4.5595    0.0000 C   0  0  1  0  0  0  0  0  0  0  0  0
    2.0815    3.3304    0.0000 O   0  0  0  0  0  0  0  0  0  0  0  0
    1.3678    2.9141    0.0000 O   0  0  0  0  0  0  0  0  0  0  0  0
   -0.0397    2.9141    0.0000 N   0  0  0  0  0  0  0  0  0  0  0  0
    1.3678    5.3923    0.0000 N   0  0  0  0  0  0  0  0  0  0  0  0
    0.6739    5.7887    0.0000 C   0  0  0  0  0  0  0  0  0  0  0  0
    0.6739    6.6213    0.0000 O   0  0  0  0  0  0  0  0  0  0  0  0
   -0.7532    5.7887    0.0000 N   0  0  0  0  0  0  0  0  0  0  0  0
   -0.0397    5.3923    0.0000 C   0  0  0  0  0  0  0  0  0  0  0  0
   -1.4669    5.3923    0.0000 C   0  0  0  0  0  0  0  0  0  0  0  0
   -1.4669    4.5595    0.0000 O   0  0  0  0  0  0  0  0  0  0  0  0
   -2.8943    5.3923    0.0000 N   0  0  0  0  0  0  0  0  0  0  0  0
   -2.1807    5.7887    0.0000 C   0  0  0  0  0  0  0  0  0  0  0  0
   -2.8943    4.5595    0.0000 C   0  0  0  0  0  0  0  0  0  0  0  0
   -2.1807    4.1432    0.0000 O   0  0  0  0  0  0  0  0  0  0  0  0
   -3.6080    3.3304    0.0000 N   0  0  0  0  0  0  0  0  0  0  0  0
   -3.6080    4.1432    0.0000 C   0  0  0  0  0  0  0  0  0  0  0  0
   -4.3217    2.9141    0.0000 C   0  0  0  0  0  0  0  0  0  0  0  0
   -5.0155    3.3304    0.0000 O   0  0  0  0  0  0  0  0  0  0  0  0
   -5.0155    1.6851    0.0000 N   0  0  0  0  0  0  0  0  0  0  0  0
   -4.3217    2.1014    0.0000 C   0  0  0  0  0  0  0  0  0  0  0  0
   -5.0155    0.8723    0.0000 C   0  0  0  0  0  0  0  0  0  0  0  0
   -4.3217    0.4559    0.0000 O   0  0  0  0  0  0  0  0  0  0  0  0
   -5.7292    0.4559    0.0000 C   0  0  1  0  0  0  0  0  0  0  0  0
   -5.7292   -0.3766    0.0000 N   0  0  0  0  0  0  0  0  0  0  0  0
   -6.5222   -0.6145    0.0000 C   0  0  0  0  0  0  0  0  0  0  0  0
   -6.9979    0.0397    0.0000 C   0  0  0  0  0  0  0  0  0  0  0  0
   -6.5222    0.7136    0.0000 C   0  0  0  0  0  0  0  0  0  0  0  0
   -2.1410   -0.7334    0.0000 C   0  0  0  0  0  0  0  0  0  0  0  0
   -4.9759   -0.7334    0.0000 C   0  0  0  0  0  0  0  0  0  0  0  0
   -1.4273   -0.3172    0.0000 N   0  0  0  0  0  0  0  0  0  0  0  0
   -4.2821   -0.3172    0.0000 O   0  0  0  0  0  0  0  0  0  0  0  0
   -2.1410   -1.5463    0.0000 N   0  0  0  0  0  0  0  0  0  0  0  0
   -4.9759   -1.5463    0.0000 C   0  0  1  0  0  0  0  0  0  0  0  0
   -2.8547   -0.3172    0.0000 N   0  0  0  0  0  0  0  0  0  0  0  0
   -5.6896   -1.9626    0.0000 N   0  0  0  0  0  0  0  0  0  0  0  0
   -2.8547   -1.9626    0.0000 C   0  0  0  0  0  0  0  0  0  0  0  0
   -4.2821   -1.9626    0.0000 C   0  0  0  0  0  0  0  0  0  0  0  0
   -3.5683   -1.5463    0.0000 C   0  0  0  0  0  0  0  0  0  0  0  0
   -5.6896   -2.7951    0.0000 C   0  0  0  0  0  0  0  0  0  0  0  0
   -4.9759   -3.1917    0.0000 O   0  0  0  0  0  0  0  0  0  0  0  0
   -6.4033   -3.1917    0.0000 C   0  0  1  0  0  0  0  0  0  0  0  0
   -7.0574   -2.7159    0.0000 N   0  0  0  0  0  0  0  0  0  0  0  0
   -7.7315   -3.1917    0.0000 C   0  0  0  0  0  0  0  0  0  0  0  0
   -7.4738   -3.9648    0.0000 C   0  0  0  0  0  0  0  0  0  0  0  0
   -6.6610   -3.9648    0.0000 C   0  0  0  0  0  0  0  0  0  0  0  0
   -7.0574   -1.8833    0.0000 C   0  0  0  0  0  0  0  0  0  0  0  0
   -7.7711   -1.4669    0.0000 C   0  0  1  0  0  0  0  0  0  0  0  0
   -6.3636   -1.4669    0.0000 O   0  0  0  0  0  0  0  0  0  0  0  0
   -7.7711   -0.6542    0.0000 C   0  0  0  0  0  0  0  0  0  0  0  0
   -8.4848   -1.8833    0.0000 N   0  0  0  0  0  0  0  0  0  0  0  0
   -8.4848   -0.2378    0.0000 C   0  0  0  0  0  0  0  0  0  0  0  0
   -8.4848    0.5749    0.0000 C   0  0  0  0  0  0  0  0  0  0  0  0
   -9.1986   -0.6542    0.0000 C   0  0  0  0  0  0  0  0  0  0  0  0
   -9.9121   -0.2378    0.0000 C   0  0  0  0  0  0  0  0  0  0  0  0
   -9.1986    0.9911    0.0000 C   0  0  0  0  0  0  0  0  0  0  0  0
   -9.9121    0.5749    0.0000 C   0  0  0  0  0  0  0  0  0  0  0  0
  2  1  1  0  0  0  0
  3  1  2  0  0  0  0
  9  1  1  0  0  0  0
  4  2  1  0  0  0  0
  2  5  1  6  0  0  0
  6  4  1  0  0  0  0
 10  5  1  0  0  0  0
  7  6  1  0  0  0  0
  8  6  1  0  0  0  0
 11 10  2  0  0  0  0
 12 10  1  0  0  0  0
 13 12  1  0  0  0  0
 12 14  1  1  0  0  0
 15 13  1  0  0  0  0
 23 14  1  0  0  0  0
 16 15  2  0  0  0  0
 17 15  1  0  0  0  0
 20 16  1  0  0  0  0
 18 17  2  0  0  0  0
 19 18  1  0  0  0  0
 20 19  2  0  0  0  0
 21 19  1  0  0  0  0
 24 22  2  0  0  0  0
 25 22  1  0  0  0  0
 29 22  1  0  0  0  0
 28 23  1  0  0  0  0
 26 23  2  0  0  0  0
 27 25  1  0  0  0  0
 28 27  1  0  0  0  0
 28 30  1  1  0  0  0
 32 30  1  0  0  0  0
 33 31  2  0  0  0  0
 34 31  1  0  0  0  0
 38 31  1  0  0  0  0
 37 32  1  0  0  0  0
 35 32  2  0  0  0  0
 36 34  1  0  0  0  0
 37 36  1  0  0  0  0
 37 39  1  1  0  0  0
 40 39  1  0  0  0  0
 41 40  2  0  0  0  0
 42 40  1  0  0  0  0
 42 43  1  6  0  0  0
 46 42  1  0  0  0  0
 44 43  1  0  0  0  0
 47 43  1  0  0  0  0
 45 44  1  0  0  0  0
 46 45  1  0  0  0  0
 48 47  1  0  0  0  0
 49 47  2  0  0  0  0
 48 50  1  1  0  0  0
 51 48  1  0  0  0  0
 56 50  1  0  0  0  0
 52 51  1  0  0  0  0
 51 53  1  6  0  0  0
 54 52  1  0  0  0  0
 57 55  2  0  0  0  0
 58 55  1  0  0  0  0
 62 55  1  0  0  0  0
 61 56  1  0  0  0  0
 59 56  2  0  0  0  0
 60 58  1  0  0  0  0
 61 60  1  0  0  0  0
 61 63  1  6  0  0  0
 65 63  1  0  0  0  0
 66 64  2  0  0  0  0
 67 64  1  0  0  0  0
 71 64  1  0  0  0  0
 70 65  1  0  0  0  0
 68 65  2  0  0  0  0
 69 67  1  0  0  0  0
 70 69  1  0  0  0  0
 70 72  1  1  0  0  0
 73 72  1  0  0  0  0
 74 73  1  0  0  0  0
 75 73  2  0  0  0  0
 76 74  1  0  0  0  0
 74 77  1  1  0  0  0
 78 76  1  0  0  0  0
 90 77  1  0  0  0  0
 79 78  2  0  0  0  0
 80 78  1  0  0  0  0
 82 79  1  0  0  0  0
 81 80  2  0  0  0  0
 83 81  1  0  0  0  0
 83 82  2  0  0  0  0
 89 84  1  0  0  0  0
 88 85  1  1  0  0  0
 92 85  1  0  0  0  0
 89 86  2  0  0  0  0
 90 87  2  0  0  0  0
 90 88  1  0  0  0  0
 91 88  1  0  0  0  0
 91 89  1  0  0  0  0
 93 92  2  0  0  0  0
 95 92  1  0  0  0  0
 95 94  1  0  0  0  0
 97 94  1  0  0  0  0
 98 96  1  0  0  0  0
 99 96  1  0  0  0  0
 99 97  1  0  0  0  0
100 97  2  0  0  0  0
101 98  2  0  0  0  0
102 98  1  0  0  0  0
 99103  1  6  0  0  0
104103  1  0  0  0  0
105104  2  0  0  0  0
107104  1  0  0  0  0
107106  1  0  0  0  0
108106  1  0  0  0  0
109108  2  0  0  0  0
111108  1  0  0  0  0
111110  1  0  0  0  0
112110  1  0  0  0  0
113112  2  0  0  0  0
115112  1  0  0  0  0
115114  1  0  0  0  0
116114  1  0  0  0  0
117116  2  0  0  0  0
119116  1  0  0  0  0
119118  1  0  0  0  0
120118  1  0  0  0  0
121120  2  0  0  0  0
122120  1  0  0  0  0
122123  1  1  0  0  0
126122  1  0  0  0  0
124123  1  0  0  0  0
128123  1  0  0  0  0
125124  1  0  0  0  0
126125  1  0  0  0  0
129127  2  0  0  0  0
131127  1  0  0  0  0
133127  1  0  0  0  0
132128  1  0  0  0  0
130128  2  0  0  0  0
135131  1  0  0  0  0
136132  1  0  0  0  0
132134  1  6  0  0  0
138134  1  0  0  0  0
137135  1  0  0  0  0
137136  1  0  0  0  0
139138  2  0  0  0  0
140138  1  0  0  0  0
140141  1  6  0  0  0
144140  1  0  0  0  0
142141  1  0  0  0  0
145141  1  0  0  0  0
143142  1  0  0  0  0
144143  1  0  0  0  0
146145  1  0  0  0  0
147145  2  0  0  0  0
148146  1  0  0  0  0
146149  1  6  0  0  0
150148  1  0  0  0  0
151150  2  0  0  0  0
152150  1  0  0  0  0
154151  1  0  0  0  0
153152  2  0  0  0  0
155153  1  0  0  0  0
155154  2  0  0  0  0
M  END
> <DATABASE_ID>
DB00006

> <DATABASE_NAME>
drugbank

> <SMILES>
CC[C@H](C)[C@H](NC(=O)[C@H](CCC(O)=O)NC(=O)[C@H](CCC(O)=O)NC(=O)[C@H](CC1=CC=CC=C1)NC(=O)[C@H](CC(O)=O)NC(=O)CNC(=O)[C@H](CC(N)=O)NC(=O)CNC(=O)CNC(=O)CNC(=O)CNC(=O)[C@@H]1CCCN1C(=O)[C@H](CCCNC(N)=N)NC(=O)[C@@H]1CCCN1C(=O)[C@H](N)CC1=CC=CC=C1)C(=O)N1CCC[C@H]1C(=O)N[C@@H](CCC(O)=O)C(=O)N[C@@H](CCC(O)=O)C(=O)N[C@@H](CC1=CC=C(O)C=C1)C(=O)N[C@@H](CC(C)C)C(O)=O

> <INCHI_IDENTIFIER>
InChI=1S/C98H138N24O33/c1-5-52(4)82(96(153)122-39-15-23-70(122)92(149)114-60(30-34-79(134)135)85(142)111-59(29-33-78(132)133)86(143)116-64(43-55-24-26-56(123)27-25-55)89(146)118-67(97(154)155)40-51(2)3)119-87(144)61(31-35-80(136)137)112-84(141)58(28-32-77(130)131)113-88(145)63(42-54-18-10-7-11-19-54)117-90(147)66(45-81(138)139)110-76(129)50-107-83(140)65(44-71(100)124)109-75(128)49-106-73(126)47-104-72(125)46-105-74(127)48-108-91(148)68-21-13-38-121(68)95(152)62(20-12-36-103-98(101)102)115-93(150)69-22-14-37-120(69)94(151)57(99)41-53-16-8-6-9-17-53/h6-11,16-19,24-27,51-52,57-70,82,123H,5,12-15,20-23,28-50,99H2,1-4H3,(H2,100,124)(H,104,125)(H,105,127)(H,106,126)(H,107,140)(H,108,148)(H,109,128)(H,110,129)(H,111,142)(H,112,141)(H,113,145)(H,114,149)(H,115,150)(H,116,143)(H,117,147)(H,118,146)(H,119,144)(H,130,131)(H,132,133)(H,134,135)(H,136,137)(H,138,139)(H,154,155)(H4,101,102,103)/t52-,57+,58-,59-,60-,61-,62-,63-,64-,65-,66-,67-,68-,69-,70-,82-/m0/s1

> <INCHI_KEY>
OIRCOABEOLEUMC-GEJPAHFPSA-N

> <FORMULA>
C98H138N24O33

> <MOLECULAR_WEIGHT>
2180.2853

> <EXACT_MASS>
2178.985813062

> <JCHEM_ACCEPTOR_COUNT>
37

> <JCHEM_ATOM_COUNT>
293

> <JCHEM_AVERAGE_NEUTRAL_MICROSPECIES_CHARGE>
2.1121161999710294

> <JCHEM_AVERAGE_POLARIZABILITY>
218.5430307997439

> <JCHEM_BIOAVAILABILITY>
0

> <JCHEM_DONOR_COUNT>
28

> <JCHEM_FORMAL_CHARGE>
0

> <JCHEM_GHOSE_FILTER>
0

> <JCHEM_IUPAC>
(4S)-4-[(2S)-2-[(2S)-2-[(2S)-2-{2-[(2S)-2-(2-{2-[2-(2-{[(2S)-1-[(2S)-2-{[(2S)-1-[(2R)-2-amino-3-phenylpropanoyl]pyrrolidin-2-yl]formamido}-5-carbamimidamidopentanoyl]pyrrolidin-2-yl]formamido}acetamido)acetamido]acetamido}acetamido)-3-carbamoylpropanamido]acetamido}-3-carboxypropanamido]-3-phenylpropanamido]-4-carboxybutanamido]-4-{[(2S,3S)-1-[(2S)-2-{[(1S)-3-carboxy-1-{[(1S)-3-carboxy-1-{[(1S)-1-{[(1S)-1-carboxy-3-methylbutyl]carbamoyl}-2-(4-hydroxyphenyl)ethyl]carbamoyl}propyl]carbamoyl}propyl]carbamoyl}pyrrolidin-1-yl]-3-methyl-1-oxopentan-2-yl]carbamoyl}butanoic acid

> <ALOGPS_LOGP>
-0.76

> <JCHEM_LOGP>
-14.34070875787397

> <ALOGPS_LOGS>
-4.67

> <JCHEM_MDDR_LIKE_RULE>
1

> <JCHEM_NEUTRAL_CHARGE>
-4

> <JCHEM_NUMBER_OF_RINGS>
6

> <JCHEM_PHYSIOLOGICAL_CHARGE>
-4

> <JCHEM_PKA>
3.167210641107685

> <JCHEM_PKA_STRONGEST_ACIDIC>
2.7845405230341966

> <JCHEM_PKA_STRONGEST_BASIC>
11.878406919141504

> <JCHEM_POLAR_SURFACE_AREA>
901.5700000000002

> <JCHEM_REFRACTIVITY>
543.3342000000004

> <JCHEM_ROTATABLE_BOND_COUNT>
66

> <JCHEM_RULE_OF_FIVE>
0

> <ALOGPS_SOLUBILITY>
4.64e-02 g/l

> <JCHEM_TRADITIONAL_IUPAC>
bivalirudin

> <JCHEM_VEBER_RULE>
0

> <DRUGBANK_ID>
DB00006

> <SECONDARY_ACCESSION_NUMBERS>
BTD00076; EXPT03302; BIOD00076; DB02351

> <DRUG_GROUPS>
approved; investigational

> <GENERIC_NAME>
Bivalirudin

> <SYNONYMS>
Bivalirudin; Bivalirudina; Bivalirudinum

> <PRODUCTS>
Angiomax; Angiomax RTU; Angiox; Bivalirudin; Bivalirudin Injection; Bivalirudin RTU; Bivalirudin for Injection; Bivalirudin in 0.9% Sodium Chloride

> <INTERNATIONAL_BRANDS>
Angiox; Hirulog

$$$$
[NO NAME]
  Mrv0541 04221219462D          
Created with ChemWriter - http://chemwriter.com
 91 96  0  0  1  0            999 V2000
   12.8548   -2.6382    0.0000 O   0  0  0  0  0  0  0  0  0  0  0  0
   13.9726   -2.5226    0.0000 O   0  0  0  0  0  0  0  0  0  0  0  0
   10.1766   -3.9327    0.0000 O   0  0  0  0  0  0  0  0  0  0  0  0
   11.2019   -0.7961    0.0000 O   0  0  0  0  0  0  0  0  0  0  0  0
    8.7800   -1.3064    0.0000 O   0  0  0  0  0  0  0  0  0  0  0  0
   16.8589   -3.2421    0.0000 O   0  0  0  0  0  0  0  0  0  0  0  0
   10.3562    1.2163    0.0000 O   0  0  0  0  0  0  0  0  0  0  0  0
    3.2702    4.8341    0.0000 O   0  0  0  0  0  0  0  0  0  0  0  0
    2.3500    8.2734    0.0000 O   0  0  0  0  0  0  0  0  0  0  0  0
    3.8213    4.2201    0.0000 O   0  0  0  0  0  0  0  0  0  0  0  0
    5.2178    1.5938    0.0000 O   0  0  0  0  0  0  0  0  0  0  0  0
    7.8960    2.8883    0.0000 O   0  0  0  0  0  0  0  0  0  0  0  0
    7.1271    0.5358    0.0000 O   0  0  0  0  0  0  0  0  0  0  0  0
   12.4834    3.1249    0.0000 O   0  0  0  0  0  0  0  0  0  0  0  0
   13.1495   -4.0364    0.0000 N   0  0  0  0  0  0  0  0  0  0  0  0
   11.2402   -2.9784    0.0000 N   0  0  0  0  0  0  0  0  0  0  0  0
   15.2089   -3.2393    0.0000 N   0  0  0  0  0  0  0  0  0  0  0  0
   10.1383   -1.7503    0.0000 N   0  0  0  0  0  0  0  0  0  0  0  0
   15.6226   -2.5255    0.0000 N   0  0  0  0  0  0  0  0  0  0  0  0
   12.3806   -6.3890    0.0000 N   0  0  0  0  0  0  0  0  0  0  0  0
    9.2926    0.2619    0.0000 N   0  0  0  0  0  0  0  0  0  0  0  0
    3.1485    7.0391    0.0000 N   0  0  0  0  0  0  0  0  0  0  0  0
    4.3338    5.7884    0.0000 N   0  0  0  0  0  0  0  0  0  0  0  0
   16.8613   -1.8132    0.0000 N   0  0  0  0  0  0  0  0  0  0  0  0
    8.1907    1.4900    0.0000 N   0  0  0  0  0  0  0  0  0  0  0  0
    5.1795    3.7761    0.0000 N   0  0  0  0  0  0  0  0  0  0  0  0
    6.2814    2.5480    0.0000 N   0  0  0  0  0  0  0  0  0  0  0  0
   11.3170   -7.3433    0.0000 N   0  0  0  0  0  0  0  0  0  0  0  0
   12.6753   -7.7873    0.0000 N   0  0  0  0  0  0  0  0  0  0  0  0
    3.8596    0.7098    0.0000 N   0  0  0  0  0  0  0  0  0  0  0  0
    6.7335    6.3823    0.0000 N   0  0  0  0  0  0  0  0  0  0  0  0
    5.9507    7.4636    0.0000 N   0  0  0  0  0  0  0  0  0  0  0  0
   13.9701   -3.9516    0.0000 C   0  0  1  0  0  0  0  0  0  0  0  0
   14.3043   -4.7058    0.0000 C   0  0  0  0  0  0  0  0  0  0  0  0
   13.6903   -5.2569    0.0000 C   0  0  0  0  0  0  0  0  0  0  0  0
   12.9766   -4.8431    0.0000 C   0  0  0  0  0  0  0  0  0  0  0  0
   12.5984   -3.4224    0.0000 C   0  0  0  0  0  0  0  0  0  0  0  0
   11.7912   -3.5925    0.0000 C   0  0  2  0  0  0  0  0  0  0  0  0
   14.3838   -3.2378    0.0000 C   0  0  0  0  0  0  0  0  0  0  0  0
   11.5349   -4.3767    0.0000 C   0  0  0  0  0  0  0  0  0  0  0  0
   12.0859   -4.9907    0.0000 C   0  0  0  0  0  0  0  0  0  0  0  0
    9.8819   -2.5345    0.0000 C   0  0  2  0  0  0  0  0  0  0  0  0
   10.4330   -3.1486    0.0000 C   0  0  0  0  0  0  0  0  0  0  0  0
    9.0747   -2.7046    0.0000 C   0  0  0  0  0  0  0  0  0  0  0  0
    8.8184   -3.4889    0.0000 C   0  0  0  0  0  0  0  0  0  0  0  0
   11.8295   -5.7750    0.0000 C   0  0  0  0  0  0  0  0  0  0  0  0
    8.0112   -3.6590    0.0000 C   0  0  0  0  0  0  0  0  0  0  0  0
    9.3694   -4.1029    0.0000 C   0  0  0  0  0  0  0  0  0  0  0  0
    9.5873   -1.1363    0.0000 C   0  0  0  0  0  0  0  0  0  0  0  0
    9.8436   -0.3521    0.0000 C   0  0  1  0  0  0  0  0  0  0  0  0
   10.6509   -0.1820    0.0000 C   0  0  0  0  0  0  0  0  0  0  0  0
   16.4476   -2.5269    0.0000 C   0  0  0  0  0  0  0  0  0  0  0  0
    2.9756    6.2324    0.0000 C   0  0  1  0  0  0  0  0  0  0  0  0
   12.0091   -0.6259    0.0000 C   0  0  0  0  0  0  0  0  0  0  0  0
    8.9979    1.6602    0.0000 C   0  0  2  0  0  0  0  0  0  0  0  0
    9.5489    1.0461    0.0000 C   0  0  0  0  0  0  0  0  0  0  0  0
   12.1242   -7.1732    0.0000 C   0  0  0  0  0  0  0  0  0  0  0  0
    2.1549    6.1475    0.0000 C   0  0  0  0  0  0  0  0  0  0  0  0
    4.8848    5.1744    0.0000 C   0  0  1  0  0  0  0  0  0  0  0  0
    4.9232    2.9920    0.0000 C   0  0  1  0  0  0  0  0  0  0  0  0
    1.8207    6.9019    0.0000 C   0  0  0  0  0  0  0  0  0  0  0  0
    9.2542    2.4444    0.0000 C   0  0  0  0  0  0  0  0  0  0  0  0
    4.1159    2.8219    0.0000 C   0  0  0  0  0  0  0  0  0  0  0  0
    3.5266    5.6183    0.0000 C   0  0  0  0  0  0  0  0  0  0  0  0
    2.4348    7.4528    0.0000 C   0  0  0  0  0  0  0  0  0  0  0  0
    5.6921    5.3445    0.0000 C   0  0  0  0  0  0  0  0  0  0  0  0
    6.8324    1.9340    0.0000 C   0  0  2  0  0  0  0  0  0  0  0  0
    4.6285    4.3902    0.0000 C   0  0  0  0  0  0  0  0  0  0  0  0
   12.1793   -1.4332    0.0000 C   0  0  0  0  0  0  0  0  0  0  0  0
   12.8164   -0.4557    0.0000 C   0  0  0  0  0  0  0  0  0  0  0  0
   11.8389    0.1814    0.0000 C   0  0  0  0  0  0  0  0  0  0  0  0
    3.8596    2.0376    0.0000 C   0  0  0  0  0  0  0  0  0  0  0  0
    5.4742    2.3779    0.0000 C   0  0  0  0  0  0  0  0  0  0  0  0
    7.6397    2.1041    0.0000 C   0  0  0  0  0  0  0  0  0  0  0  0
   10.0615    2.6145    0.0000 C   0  0  0  0  0  0  0  0  0  0  0  0
    3.0790    1.7862    0.0000 C   0  0  0  0  0  0  0  0  0  0  0  0
    5.9484    6.1287    0.0000 C   0  0  0  0  0  0  0  0  0  0  0  0
    4.3411    1.3737    0.0000 C   0  0  0  0  0  0  0  0  0  0  0  0
    3.0790    0.9612    0.0000 C   0  0  0  0  0  0  0  0  0  0  0  0
    6.5761    1.1498    0.0000 C   0  0  0  0  0  0  0  0  0  0  0  0
    2.3645    2.1987    0.0000 C   0  0  0  0  0  0  0  0  0  0  0  0
   10.3178    3.3987    0.0000 C   0  0  0  0  0  0  0  0  0  0  0  0
   10.6125    2.0005    0.0000 C   0  0  0  0  0  0  0  0  0  0  0  0
    2.3645    0.5487    0.0000 C   0  0  0  0  0  0  0  0  0  0  0  0
    5.4646    6.7970    0.0000 C   0  0  0  0  0  0  0  0  0  0  0  0
    1.6500    1.7862    0.0000 C   0  0  0  0  0  0  0  0  0  0  0  0
    1.6500    0.9612    0.0000 C   0  0  0  0  0  0  0  0  0  0  0  0
   11.1251    3.5688    0.0000 C   0  0  0  0  0  0  0  0  0  0  0  0
   11.4198    2.1706    0.0000 C   0  0  0  0  0  0  0  0  0  0  0  0
    6.7349    7.2073    0.0000 C   0  0  0  0  0  0  0  0  0  0  0  0
   11.6761    2.9548    0.0000 C   0  0  0  0  0  0  0  0  0  0  0  0
  1 37  2  0  0  0  0
  2 39  2  0  0  0  0
  3 43  2  0  0  0  0
  4 51  1  0  0  0  0
  4 54  1  0  0  0  0
  5 49  2  0  0  0  0
  6 52  2  0  0  0  0
  7 56  2  0  0  0  0
  8 64  2  0  0  0  0
  9 65  2  0  0  0  0
 10 68  2  0  0  0  0
 11 73  2  0  0  0  0
 12 74  2  0  0  0  0
 13 80  1  0  0  0  0
 14 91  1  0  0  0  0
 15 33  1  0  0  0  0
 15 36  1  0  0  0  0
 15 37  1  0  0  0  0
 38 16  1  6  0  0  0
 16 43  1  0  0  0  0
 17 19  1  0  0  0  0
 17 39  1  0  0  0  0
 42 18  1  6  0  0  0
 18 49  1  0  0  0  0
 19 52  1  0  0  0  0
 20 46  1  0  0  0  0
 20 57  2  0  0  0  0
 50 21  1  6  0  0  0
 21 56  1  0  0  0  0
 22 53  1  0  0  0  0
 22 65  1  0  0  0  0
 59 23  1  1  0  0  0
 23 64  1  0  0  0  0
 24 52  1  0  0  0  0
 55 25  1  1  0  0  0
 25 74  1  0  0  0  0
 60 26  1  6  0  0  0
 26 68  1  0  0  0  0
 67 27  1  6  0  0  0
 27 73  1  0  0  0  0
 28 57  1  0  0  0  0
 29 57  1  0  0  0  0
 30 78  1  0  0  0  0
 30 79  1  0  0  0  0
 31 77  1  0  0  0  0
 31 90  1  0  0  0  0
 32 85  1  0  0  0  0
 32 90  2  0  0  0  0
 33 34  1  0  0  0  0
 33 39  1  6  0  0  0
 34 35  1  0  0  0  0
 35 36  1  0  0  0  0
 37 38  1  0  0  0  0
 38 40  1  0  0  0  0
 40 41  1  0  0  0  0
 41 46  1  0  0  0  0
 42 43  1  0  0  0  0
 42 44  1  0  0  0  0
 44 45  1  0  0  0  0
 45 47  1  0  0  0  0
 45 48  1  0  0  0  0
 49 50  1  0  0  0  0
 50 51  1  0  0  0  0
 53 58  1  0  0  0  0
 53 64  1  6  0  0  0
 54 69  1  0  0  0  0
 54 70  1  0  0  0  0
 54 71  1  0  0  0  0
 55 56  1  0  0  0  0
 55 62  1  0  0  0  0
 58 61  1  0  0  0  0
 59 66  1  0  0  0  0
 59 68  1  0  0  0  0
 60 63  1  0  0  0  0
 60 73  1  0  0  0  0
 61 65  1  0  0  0  0
 62 75  1  0  0  0  0
 63 72  1  0  0  0  0
 66 77  1  0  0  0  0
 67 74  1  0  0  0  0
 67 80  1  0  0  0  0
 72 76  1  0  0  0  0
 72 78  2  0  0  0  0
 75 82  2  0  0  0  0
 75 83  1  0  0  0  0
 76 79  1  0  0  0  0
 76 81  2  0  0  0  0
 77 85  2  0  0  0  0
 79 84  2  0  0  0  0
 81 86  1  0  0  0  0
 82 88  1  0  0  0  0
 83 89  2  0  0  0  0
 84 87  1  0  0  0  0
 86 87  2  0  0  0  0
 88 91  2  0  0  0  0
 89 91  1  0  0  0  0
M  END
> <DATABASE_ID>
DB00014

> <DATABASE_NAME>
drugbank

> <SMILES>
CC(C)C[C@H](NC(=O)[C@@H](COC(C)(C)C)NC(=O)[C@H](CC1=CC=C(O)C=C1)NC(=O)[C@H](CO)NC(=O)[C@H](CC1=CNC2=CC=CC=C12)NC(=O)[C@H](CC1=CN=CN1)NC(=O)[C@@H]1CCC(=O)N1)C(=O)N[C@@H](CCCN=C(N)N)C(=O)N1CCC[C@H]1C(=O)NNC(N)=O

> <INCHI_IDENTIFIER>
InChI=1S/C59H84N18O14/c1-31(2)22-40(49(82)68-39(12-8-20-64-57(60)61)56(89)77-21-9-13-46(77)55(88)75-76-58(62)90)69-54(87)45(29-91-59(3,4)5)74-50(83)41(23-32-14-16-35(79)17-15-32)70-53(86)44(28-78)73-51(84)42(24-33-26-65-37-11-7-6-10-36(33)37)71-52(85)43(25-34-27-63-30-66-34)72-48(81)38-18-19-47(80)67-38/h6-7,10-11,14-17,26-27,30-31,38-46,65,78-79H,8-9,12-13,18-25,28-29H2,1-5H3,(H,63,66)(H,67,80)(H,68,82)(H,69,87)(H,70,86)(H,71,85)(H,72,81)(H,73,84)(H,74,83)(H,75,88)(H4,60,61,64)(H3,62,76,90)/t38-,39-,40-,41-,42-,43-,44-,45+,46-/m0/s1

> <INCHI_KEY>
BLCLNMBMMGCOAS-URPVMXJPSA-N

> <FORMULA>
C59H84N18O14

> <MOLECULAR_WEIGHT>
1269.4105

> <EXACT_MASS>
1268.641439486

> <JCHEM_ACCEPTOR_COUNT>
18

> <JCHEM_ATOM_COUNT>
175

> <JCHEM_AVERAGE_NEUTRAL_MICROSPECIES_CHARGE>
1.349686759173537

> <JCHEM_AVERAGE_POLARIZABILITY>
130.73574153273802

> <JCHEM_BIOAVAILABILITY>
0

> <JCHEM_DONOR_COUNT>
17

> <JCHEM_FORMAL_CHARGE>
0

> <JCHEM_GHOSE_FILTER>
0

> <JCHEM_IUPAC>
(2S)-1-[(2S)-2-[(2S)-2-[(2R)-3-(tert-butoxy)-2-[(2S)-2-[(2S)-3-hydroxy-2-[(2S)-2-[(2S)-3-(1H-imidazol-5-yl)-2-{[(2S)-5-oxopyrrolidin-2-yl]formamido}propanamido]-3-(1H-indol-3-yl)propanamido]propanamido]-3-(4-hydroxyphenyl)propanamido]propanamido]-4-methylpentanamido]-5-[(diaminomethylidene)amino]pentanoyl]-N-(carbamoylamino)pyrrolidine-2-carboxamide

> <ALOGPS_LOGP>
0.30

> <JCHEM_LOGP>
-5.083841436118017

> <ALOGPS_LOGS>
-4.65

> <JCHEM_MDDR_LIKE_RULE>
1

> <JCHEM_NEUTRAL_CHARGE>
2

> <JCHEM_NUMBER_OF_RINGS>
6

> <JCHEM_PHYSIOLOGICAL_CHARGE>
1

> <JCHEM_PKA>
10.004730150548193

> <JCHEM_PKA_STRONGEST_ACIDIC>
9.357764630931712

> <JCHEM_PKA_STRONGEST_BASIC>
10.911998832479386

> <JCHEM_POLAR_SURFACE_AREA>
495.8899999999997

> <JCHEM_REFRACTIVITY>
325.83880000000016

> <JCHEM_ROTATABLE_BOND_COUNT>
33

> <JCHEM_RULE_OF_FIVE>
0

> <ALOGPS_SOLUBILITY>
2.83e-02 g/l

> <JCHEM_TRADITIONAL_IUPAC>
tetrahydrofolic acid

> <JCHEM_VEBER_RULE>
0

> <DRUGBANK_ID>
DB00014

> <SECONDARY_ACCESSION_NUMBERS>
BTD00113; BIOD00113

> <DRUG_GROUPS>
approved

> <GENERIC_NAME>
Goserelin

> <SYNONYMS>
Goserelin; Goserelina

> <PRODUCTS>
Zoladex; Zoladex LA

> <SALTS>
Goserelin acetate

$$$$

  Mrv1718010181713392D          

131138  0  0  0  0            999 V2000
  -14.9450    0.9816    0.0000 C   0  0  2  0  0  0  0  0  0  0  0  0
  -14.2326   -0.2544    0.0000 O   0  0  0  0  0  0  0  0  0  0  0  0
  -14.2272    0.5680    0.0000 C   0  0  0  0  0  0  0  0  0  0  0  0
  -14.9456    1.8057    0.0000 C   0  0  0  0  0  0  0  0  0  0  0  0
  -14.2344    2.2178    0.0000 C   0  0  0  0  0  0  0  0  0  0  0  0
  -15.6593    2.2194    0.0000 C   0  0  0  0  0  0  0  0  0  0  0  0
  -12.8353    0.6382    0.0000 C   0  0  0  0  0  0  0  0  0  0  0  0
  -12.1310    1.8759    0.0000 O   0  0  0  0  0  0  0  0  0  0  0  0
  -12.1285    1.0502    0.0000 C   0  0  0  0  0  0  0  0  0  0  0  0
  -10.6694    0.9769    0.0000 C   0  0  1  0  0  0  0  0  0  0  0  0
   -9.9477   -0.2610    0.0000 O   0  0  0  0  0  0  0  0  0  0  0  0
   -9.9553    0.5664    0.0000 C   0  0  0  0  0  0  0  0  0  0  0  0
  -10.6718    1.8025    0.0000 C   0  0  0  0  0  0  0  0  0  0  0  0
   -9.9540    2.2147    0.0000 C   0  0  0  0  0  0  0  0  0  0  0  0
   -9.9576    3.0387    0.0000 C   0  0  0  0  0  0  0  0  0  0  0  0
   -9.2423    1.7996    0.0000 C   0  0  0  0  0  0  0  0  0  0  0  0
   -8.5631    0.6380    0.0000 C   0  0  1  0  0  0  0  0  0  0  0  0
   -7.8467    1.8726    0.0000 O   0  0  0  0  0  0  0  0  0  0  0  0
   -8.5607   -0.1865    0.0000 C   0  0  0  0  0  0  0  0  0  0  0  0
   -7.8443    1.0480    0.0000 C   0  0  0  0  0  0  0  0  0  0  0  0
   -6.3825    0.9802    0.0000 C   0  0  1  0  0  0  0  0  0  0  0  0
   -5.6676   -0.2511    0.0000 O   0  0  0  0  0  0  0  0  0  0  0  0
   -5.6700    0.5734    0.0000 C   0  0  0  0  0  0  0  0  0  0  0  0
   -6.3849    1.8048    0.0000 C   0  0  0  0  0  0  0  0  0  0  0  0
   -5.6687    2.2209    0.0000 C   0  0  0  0  0  0  0  0  0  0  0  0
   -7.1001    2.2179    0.0000 C   0  0  0  0  0  0  0  0  0  0  0  0
   -4.2855    0.6441    0.0000 C   0  0  2  0  0  0  0  0  0  0  0  0
   -3.5735    1.8864    0.0000 O   0  0  0  0  0  0  0  0  0  0  0  0
   -3.5727    1.0556    0.0000 C   0  0  0  0  0  0  0  0  0  0  0  0
   -4.2892   -0.1788    0.0000 C   0  0  0  0  0  0  0  0  0  0  0  0
   -3.5680   -0.5934    0.0000 C   0  0  0  0  0  0  0  0  0  0  0  0
   -5.0019   -0.5904    0.0000 C   0  0  0  0  0  0  0  0  0  0  0  0
   -2.1101    0.9871    0.0000 C   0  0  1  0  0  0  0  0  0  0  0  0
   -1.3969   -0.2503    0.0000 O   0  0  0  0  0  0  0  0  0  0  0  0
   -1.3993    0.5743    0.0000 C   0  0  0  0  0  0  0  0  0  0  0  0
   -2.1106    1.8100    0.0000 C   0  0  0  0  0  0  0  0  0  0  0  0
   -1.3964    2.2235    0.0000 C   0  0  0  0  0  0  0  0  0  0  0  0
   -2.8276    2.2246    0.0000 C   0  0  0  0  0  0  0  0  0  0  0  0
   -0.0102    0.6528    0.0000 C   0  0  2  0  0  0  0  0  0  0  0  0
    0.7229    1.8480    0.0000 O   0  0  0  0  0  0  0  0  0  0  0  0
    0.7253    1.0234    0.0000 C   0  0  0  0  0  0  0  0  0  0  0  0
   -0.0539   -0.1711    0.0000 C   0  0  0  0  0  0  0  0  0  0  0  0
    1.4097   -0.3266    0.0000 C   0  0  0  0  0  0  0  0  0  0  0  0
    0.6424   -0.6245    0.0000 C   0  0  0  0  0  0  0  0  0  0  0  0
    0.6805   -1.4428    0.0000 C   0  0  0  0  0  0  0  0  0  0  0  0
    1.4816   -1.6578    0.0000 C   0  0  0  0  0  0  0  0  0  0  0  0
    1.6944   -2.4564    0.0000 C   0  0  0  0  0  0  0  0  0  0  0  0
    1.1094   -3.0399    0.0000 C   0  0  0  0  0  0  0  0  0  0  0  0
    0.3123   -2.8249    0.0000 C   0  0  0  0  0  0  0  0  0  0  0  0
    0.0979   -2.0323    0.0000 C   0  0  0  0  0  0  0  0  0  0  0  0
    2.1830    0.9576    0.0000 C   0  0  1  0  0  0  0  0  0  0  0  0
    2.9006   -0.2799    0.0000 O   0  0  0  0  0  0  0  0  0  0  0  0
    2.8982    0.5447    0.0000 C   0  0  0  0  0  0  0  0  0  0  0  0
    2.1848    1.7822    0.0000 C   0  0  0  0  0  0  0  0  0  0  0  0
    2.8995    2.1921    0.0000 C   0  0  0  0  0  0  0  0  0  0  0  0
    2.8971    3.0167    0.0000 C   0  0  0  0  0  0  0  0  0  0  0  0
    3.6145    1.7792    0.0000 C   0  0  0  0  0  0  0  0  0  0  0  0
    4.2858    0.6242    0.0000 C   0  0  2  0  0  0  0  0  0  0  0  0
    4.9961    1.8604    0.0000 O   0  0  0  0  0  0  0  0  0  0  0  0
    4.9985    1.0359    0.0000 C   0  0  0  0  0  0  0  0  0  0  0  0
    4.2846   -0.2045    0.0000 C   0  0  0  0  0  0  0  0  0  0  0  0
    5.7554   -0.2800    0.0000 C   0  0  0  0  0  0  0  0  0  0  0  0
    4.9972   -0.6115    0.0000 C   0  0  0  0  0  0  0  0  0  0  0  0
    5.0838   -1.4378    0.0000 C   0  0  0  0  0  0  0  0  0  0  0  0
    5.8915   -1.6078    0.0000 C   0  0  0  0  0  0  0  0  0  0  0  0
    6.1505   -2.3924    0.0000 C   0  0  0  0  0  0  0  0  0  0  0  0
    5.5976   -3.0069    0.0000 C   0  0  0  0  0  0  0  0  0  0  0  0
    4.7898   -2.8370    0.0000 C   0  0  0  0  0  0  0  0  0  0  0  0
    4.5365   -2.0463    0.0000 C   0  0  0  0  0  0  0  0  0  0  0  0
    6.4624    0.9636    0.0000 C   0  0  1  0  0  0  0  0  0  0  0  0
    7.1755   -0.2701    0.0000 O   0  0  0  0  0  0  0  0  0  0  0  0
    7.1792    0.5526    0.0000 C   0  0  0  0  0  0  0  0  0  0  0  0
    6.4601    1.7883    0.0000 C   0  0  0  0  0  0  0  0  0  0  0  0
    7.1744    2.2017    0.0000 C   0  0  0  0  0  0  0  0  0  0  0  0
    7.1721    3.0263    0.0000 C   0  0  0  0  0  0  0  0  0  0  0  0
    7.8895    1.7930    0.0000 C   0  0  0  0  0  0  0  0  0  0  0  0
    8.5618    0.6354    0.0000 C   0  0  2  0  0  0  0  0  0  0  0  0
    9.2679    1.8717    0.0000 O   0  0  0  0  0  0  0  0  0  0  0  0
    9.2702    1.0471    0.0000 C   0  0  0  0  0  0  0  0  0  0  0  0
    8.5600   -0.1889    0.0000 C   0  0  0  0  0  0  0  0  0  0  0  0
   10.0287   -0.2626    0.0000 C   0  0  0  0  0  0  0  0  0  0  0  0
    9.2750   -0.6018    0.0000 C   0  0  0  0  0  0  0  0  0  0  0  0
    9.3632   -1.4221    0.0000 C   0  0  0  0  0  0  0  0  0  0  0  0
   10.1691   -1.5906    0.0000 C   0  0  0  0  0  0  0  0  0  0  0  0
   10.4240   -2.3752    0.0000 C   0  0  0  0  0  0  0  0  0  0  0  0
    9.8710   -2.9896    0.0000 C   0  0  0  0  0  0  0  0  0  0  0  0
    9.0693   -2.8212    0.0000 C   0  0  0  0  0  0  0  0  0  0  0  0
    8.8103   -2.0366    0.0000 C   0  0  0  0  0  0  0  0  0  0  0  0
   10.7303    0.9748    0.0000 C   0  0  1  0  0  0  0  0  0  0  0  0
   11.4478   -0.2625    0.0000 O   0  0  0  0  0  0  0  0  0  0  0  0
   11.4454    0.5618    0.0000 C   0  0  0  0  0  0  0  0  0  0  0  0
   10.7279    1.7993    0.0000 C   0  0  0  0  0  0  0  0  0  0  0  0
   11.4423    2.2171    0.0000 C   0  0  0  0  0  0  0  0  0  0  0  0
   11.4460    3.0399    0.0000 C   0  0  0  0  0  0  0  0  0  0  0  0
   12.1635    1.8024    0.0000 C   0  0  0  0  0  0  0  0  0  0  0  0
   12.8272    0.6393    0.0000 C   0  0  2  0  0  0  0  0  0  0  0  0
   13.5437    1.8738    0.0000 O   0  0  0  0  0  0  0  0  0  0  0  0
   13.5461    1.0492    0.0000 C   0  0  0  0  0  0  0  0  0  0  0  0
   12.8296   -0.1853    0.0000 C   0  0  0  0  0  0  0  0  0  0  0  0
   13.5448   -0.5982    0.0000 C   0  0  0  0  0  0  0  0  0  0  0  0
   13.6314   -1.4203    0.0000 C   0  0  0  0  0  0  0  0  0  0  0  0
   14.4391   -1.5904    0.0000 C   0  0  0  0  0  0  0  0  0  0  0  0
   14.6981   -2.3750    0.0000 C   0  0  0  0  0  0  0  0  0  0  0  0
   14.1467   -2.9875    0.0000 C   0  0  0  0  0  0  0  0  0  0  0  0
   13.3391   -2.8174    0.0000 C   0  0  0  0  0  0  0  0  0  0  0  0
   13.0801   -2.0329    0.0000 C   0  0  0  0  0  0  0  0  0  0  0  0
  -16.4012    1.0443    0.0000 C   0  0  0  0  0  0  0  0  0  0  0  0
  -16.4025    1.8688    0.0000 O   0  0  0  0  0  0  0  0  0  0  0  0
   14.2598    0.6361    0.0000 N   0  0  0  0  0  0  0  0  0  0  0  0
   14.2588   -0.1884    0.0000 C   0  0  0  0  0  0  0  0  0  0  0  0
   14.9743    1.0475    0.0000 C   0  0  0  0  0  0  0  0  0  0  0  0
   15.6879    0.6344    0.0000 C   0  0  0  0  0  0  0  0  0  0  0  0
   16.4025    1.0458    0.0000 O   0  0  0  0  0  0  0  0  0  0  0  0
  -15.6897    0.6267    0.0000 N   0  0  0  0  0  0  0  0  0  0  0  0
  -13.5535    1.0442    0.0000 N   0  0  0  0  0  0  0  0  0  0  0  0
  -11.4182    0.6305    0.0000 N   0  0  0  0  0  0  0  0  0  0  0  0
   -9.2819    1.0431    0.0000 N   0  0  0  0  0  0  0  0  0  0  0  0
   -7.1311    0.6334    0.0000 N   0  0  0  0  0  0  0  0  0  0  0  0
   -5.0005    1.0555    0.0000 N   0  0  0  0  0  0  0  0  0  0  0  0
   -2.8592    0.6415    0.0000 N   0  0  0  0  0  0  0  0  0  0  0  0
   -0.7298    1.0564    0.0000 N   0  0  0  0  0  0  0  0  0  0  0  0
    1.9311   -0.9660    0.0000 N   0  0  0  0  0  0  0  0  0  0  0  0
    1.4367    0.6058    0.0000 N   0  0  0  0  0  0  0  0  0  0  0  0
    3.5664    1.0282    0.0000 N   0  0  0  0  0  0  0  0  0  0  0  0
    6.3059   -0.8944    0.0000 N   0  0  0  0  0  0  0  0  0  0  0  0
    5.7118    0.6214    0.0000 N   0  0  0  0  0  0  0  0  0  0  0  0
    7.8436    1.0417    0.0000 N   0  0  0  0  0  0  0  0  0  0  0  0
   10.5808   -0.8757    0.0000 N   0  0  0  0  0  0  0  0  0  0  0  0
    9.9813    0.6288    0.0000 N   0  0  0  0  0  0  0  0  0  0  0  0
   12.1112    1.0489    0.0000 N   0  0  0  0  0  0  0  0  0  0  0  0
   14.7709   -0.8351    0.0000 N   0  0  0  0  0  0  0  0  0  0  0  0
 12 11  2  0  0  0  0
 10 13  1  6  0  0  0
 13 14  1  0  0  0  0
 14 15  1  0  0  0  0
 14 16  1  0  0  0  0
 17 20  1  0  0  0  0
 20 18  2  0  0  0  0
 17 19  1  6  0  0  0
 21 23  1  0  0  0  0
 23 22  2  0  0  0  0
 21 24  1  6  0  0  0
 24 25  1  0  0  0  0
 24 26  1  0  0  0  0
 27 29  1  0  0  0  0
 29 28  2  0  0  0  0
 27 30  1  6  0  0  0
 30 31  1  0  0  0  0
 30 32  1  0  0  0  0
 33 35  1  0  0  0  0
 35 34  2  0  0  0  0
 33 36  1  6  0  0  0
 36 37  1  0  0  0  0
 36 38  1  0  0  0  0
 39 41  1  0  0  0  0
 41 40  2  0  0  0  0
 39 42  1  6  0  0  0
 42 44  1  0  0  0  0
 43 44  2  0  0  0  0
 44 45  1  0  0  0  0
 45 46  2  0  0  0  0
 46 47  1  0  0  0  0
 47 48  2  0  0  0  0
 48 49  1  0  0  0  0
 49 50  2  0  0  0  0
 50 45  1  0  0  0  0
 51 53  1  0  0  0  0
 53 52  2  0  0  0  0
 51 54  1  6  0  0  0
 54 55  1  0  0  0  0
 55 56  1  0  0  0  0
 55 57  1  0  0  0  0
 58 60  1  0  0  0  0
 60 59  2  0  0  0  0
 58 61  1  6  0  0  0
 61 63  1  0  0  0  0
 62 63  2  0  0  0  0
 63 64  1  0  0  0  0
 64 65  2  0  0  0  0
 65 66  1  0  0  0  0
 66 67  2  0  0  0  0
 67 68  1  0  0  0  0
 68 69  2  0  0  0  0
 69 64  1  0  0  0  0
 70 72  1  0  0  0  0
 72 71  2  0  0  0  0
 70 73  1  6  0  0  0
 73 74  1  0  0  0  0
 74 75  1  0  0  0  0
 74 76  1  0  0  0  0
 77 79  1  0  0  0  0
 79 78  2  0  0  0  0
 77 80  1  6  0  0  0
 80 82  1  0  0  0  0
 81 82  2  0  0  0  0
 82 83  1  0  0  0  0
 83 84  2  0  0  0  0
 84 85  1  0  0  0  0
 85 86  2  0  0  0  0
 86 87  1  0  0  0  0
 87 88  2  0  0  0  0
 88 83  1  0  0  0  0
 89 91  1  0  0  0  0
 91 90  2  0  0  0  0
 89 92  1  6  0  0  0
 92 93  1  0  0  0  0
 93 94  1  0  0  0  0
 93 95  1  0  0  0  0
 96 98  1  0  0  0  0
 98 97  2  0  0  0  0
 96 99  1  6  0  0  0
 99100  1  0  0  0  0
110100  2  0  0  0  0
100101  1  0  0  0  0
101102  2  0  0  0  0
102103  1  0  0  0  0
103104  2  0  0  0  0
104105  1  0  0  0  0
105106  2  0  0  0  0
106101  1  0  0  0  0
107108  2  0  0  0  0
 98109  1  0  0  0  0
109111  1  0  0  0  0
111112  1  0  0  0  0
112113  1  0  0  0  0
  1  3  1  0  0  0  0
  3  2  2  0  0  0  0
  1  4  1  1  0  0  0
  4  5  1  0  0  0  0
  4  6  1  0  0  0  0
  7  9  1  0  0  0  0
  9  8  2  0  0  0  0
 10 12  1  0  0  0  0
122 43  1  0  0  0  0
 46122  1  0  0  0  0
  3115  1  0  0  0  0
115  7  1  0  0  0  0
123 51  1  0  0  0  0
 41123  1  0  0  0  0
118 21  1  0  0  0  0
 20118  1  0  0  0  0
124 58  1  0  0  0  0
 53124  1  0  0  0  0
114107  1  0  0  0  0
114  1  1  0  0  0  0
125 62  1  0  0  0  0
 65125  1  0  0  0  0
119 27  1  0  0  0  0
 23119  1  0  0  0  0
126 70  1  0  0  0  0
 60126  1  0  0  0  0
  9116  1  0  0  0  0
116 10  1  0  0  0  0
127 77  1  0  0  0  0
 72127  1  0  0  0  0
120 33  1  0  0  0  0
 29120  1  0  0  0  0
128 81  1  0  0  0  0
 84128  1  0  0  0  0
129 89  1  0  0  0  0
 79129  1  0  0  0  0
121 39  1  0  0  0  0
 35121  1  0  0  0  0
130 96  1  0  0  0  0
 91130  1  0  0  0  0
117 17  1  0  0  0  0
 12117  1  0  0  0  0
131110  1  0  0  0  0
102131  1  0  0  0  0
M  END
> <DATABASE_ID>
DB00027

> <DATABASE_NAME>
drugbank

> <SMILES>
CC(C)C[C@@H](NC(=O)CNC(=O)[C@@H](NC=O)C(C)C)C(=O)N[C@@H](C)C(=O)N[C@H](C(C)C)C(=O)N[C@@H](C(C)C)C(=O)N[C@H](C(C)C)C(=O)N[C@@H](CC1=CNC2=C1C=CC=C2)C(=O)N[C@H](CC(C)C)C(=O)N[C@@H](CC1=CNC2=C1C=CC=C2)C(=O)N[C@H](CC(C)C)C(=O)N[C@@H](CC1=CNC2=C1C=CC=C2)C(=O)N[C@H](CC(C)C)C(=O)N[C@@H](CC1=CNC2=C1C=CC=C2)C(=O)NCCO

> <INCHI_IDENTIFIER>
InChI=1S/C96H135N19O16/c1-50(2)36-71(105-79(118)48-102-93(128)80(54(9)10)103-49-117)86(121)104-58(17)84(119)113-82(56(13)14)95(130)115-83(57(15)16)96(131)114-81(55(11)12)94(129)112-78(43-62-47-101-70-33-25-21-29-66(62)70)92(127)108-74(39-53(7)8)89(124)111-77(42-61-46-100-69-32-24-20-28-65(61)69)91(126)107-73(38-52(5)6)88(123)110-76(41-60-45-99-68-31-23-19-27-64(60)68)90(125)106-72(37-51(3)4)87(122)109-75(85(120)97-34-35-116)40-59-44-98-67-30-22-18-26-63(59)67/h18-33,44-47,49-58,71-78,80-83,98-101,116H,34-43,48H2,1-17H3,(H,97,120)(H,102,128)(H,103,117)(H,104,121)(H,105,118)(H,106,125)(H,107,126)(H,108,127)(H,109,122)(H,110,123)(H,111,124)(H,112,129)(H,113,119)(H,114,131)(H,115,130)/t58-,71+,72+,73+,74+,75-,76-,77-,78-,80-,81+,82+,83-/m0/s1

> <INCHI_KEY>
NDAYQJDHGXTBJL-MWWSRJDJSA-N

> <FORMULA>
C96H135N19O16

> <MOLECULAR_WEIGHT>
1811.253

> <EXACT_MASS>
1810.033419343

> <JCHEM_ACCEPTOR_COUNT>
16

> <JCHEM_ATOM_COUNT>
266

> <JCHEM_AVERAGE_POLARIZABILITY>
194.73112146160696

> <JCHEM_BIOAVAILABILITY>
0

> <JCHEM_DONOR_COUNT>
20

> <JCHEM_FORMAL_CHARGE>
0

> <JCHEM_GHOSE_FILTER>
0

> <JCHEM_IUPAC>
(2R)-N-[(1S)-1-{[(1R)-1-{[(1S)-1-{[(1R)-1-{[(1S)-1-{[(1R)-1-{[(1S)-1-{[(1R)-1-{[(1S)-1-{[(1R)-1-{[(1S)-1-[(2-hydroxyethyl)carbamoyl]-2-(1H-indol-3-yl)ethyl]carbamoyl}-3-methylbutyl]carbamoyl}-2-(1H-indol-3-yl)ethyl]carbamoyl}-3-methylbutyl]carbamoyl}-2-(1H-indol-3-yl)ethyl]carbamoyl}-3-methylbutyl]carbamoyl}-2-(1H-indol-3-yl)ethyl]carbamoyl}-2-methylpropyl]carbamoyl}-2-methylpropyl]carbamoyl}-2-methylpropyl]carbamoyl}ethyl]-2-{2-[(2S)-2-formamido-3-methylbutanamido]acetamido}-4-methylpentanamide

> <ALOGPS_LOGP>
4.38

> <JCHEM_LOGP>
5.961331766000006

> <ALOGPS_LOGS>
-5.67

> <JCHEM_MDDR_LIKE_RULE>
1

> <JCHEM_NUMBER_OF_RINGS>
8

> <JCHEM_PHYSIOLOGICAL_CHARGE>
0

> <JCHEM_PKA>
11.945820150825762

> <JCHEM_PKA_STRONGEST_ACIDIC>
11.560887729305339

> <JCHEM_POLAR_SURFACE_AREA>
519.8899999999996

> <JCHEM_REFRACTIVITY>
492.3329000000001

> <JCHEM_ROTATABLE_BOND_COUNT>
50

> <JCHEM_RULE_OF_FIVE>
0

> <ALOGPS_SOLUBILITY>
3.90e-03 g/l

> <JCHEM_TRADITIONAL_IUPAC>
(2R)-N-[(1S)-1-{[(1R)-1-{[(1S)-1-{[(1R)-1-{[(1S)-1-{[(1R)-1-{[(1S)-1-{[(1R)-1-{[(1S)-1-{[(1R)-1-{[(1S)-1-[(2-hydroxyethyl)carbamoyl]-2-(1H-indol-3-yl)ethyl]carbamoyl}-3-methylbutyl]carbamoyl}-2-(1H-indol-3-yl)ethyl]carbamoyl}-3-methylbutyl]carbamoyl}-2-(1H-indol-3-yl)ethyl]carbamoyl}-3-methylbutyl]carbamoyl}-2-(1H-indol-3-yl)ethyl]carbamoyl}-2-methylpropyl]carbamoyl}-2-methylpropyl]carbamoyl}-2-methylpropyl]carbamoyl}ethyl]-2-{2-[(2S)-2-formamido-3-methylbutanamido]acetamido}-4-methylpentanamide

> <JCHEM_VEBER_RULE>
0

> <DRUGBANK_ID>
DB00027

> <SECONDARY_ACCESSION_NUMBERS>
BTD00036; BIOD00036

> <DRUG_GROUPS>
approved

> <GENERIC_NAME>
Gramicidin D

> <SYNONYMS>
Bacillus brevis gramicidin D; Gramicidin; Gramicidin A; Gramicidin B; Gramicidin C; Gramicidina; Gramicidine

> <PRODUCTS>
Antibiotic Cream; Antibiotic Cream Plus Pain Relief; Antibiotic Cream Plus Pain Relief for Kids; Antibiotic Cream for Kids; Antibiotic Drops; Antibiotic Ear Drops; Antibiotic Eye Drops; Antibiotic Plus Pain Relief Cream; Complete Antibiotic Ointment; Kenacomb Cream; Kenacomb Mild Cream; Kenacomb Mild Ointment; Kenacomb Ointment; Kenacomb Ont; Lidecomb Cream; Lidosporin Cream; Mecomb Crm 0.1%; Neocidin; Neomycin and Polymyxin B Sulfates and Gramicidin; Neosporin; Neosporin Antibiotic Cream; Neosporin Eye-ear Solution; Odan-spor; Optimyxin; Optimyxin Plus; Original Antibiotic Cream; Polycidin Eye, Ear Drops; Polysporin Antibiotic Burn Cream; Polysporin Antibiotic Cream; Polysporin Burn Formula Cream; Polysporin Cold Sore Ointment; Polysporin Complete; Polysporin Cream; Polysporin Eye and Ear Drops Sterile; Polysporin Plus Pain Relief; Polysporin Triple Antibiotic Ointment; Polysporin for Kids; Polysporin for Stitches; Polytopic Cream; Sandoz Opticort; Sofracort; Sofracort Ear/eye Ointment; Sofracort Eye/ear Drops; Sofracort Sterile Ear/eye Drops; Sofracort Sterile Ear/eye Ointment; Soframycin Nasal Spray; Soframycin Ointment; Soframycin Skin Ointment; Soothe Antibiotic Drops; Teva-triacomb; Theraderm Cream; Triple Antibiotic Ointment; Viaderm Kc Crm; Viaderm Kc Ont

> <INTERNATIONAL_BRANDS>
Sofradex